/*--------------------------------*- C++ -*----------------------------------*\
  =========                 |
  \\      /  F ield         | OpenFOAM: The Open Source CFD Toolbox
   \\    /   O peration     | Website:  https://openfoam.org
    \\  /    A nd           | Version:  11
     \\/     M anipulation  |
\*---------------------------------------------------------------------------*/
FoamFile
{
    format      ascii;
    class       dictionary;
    location    "system";
    object      fvSolution;
}
// * * * * * * * * * * * * * * * * * * * * * * * * * * * * * * * * * * * * * //

solvers					// Solver-Wahl
{
    p
    {
        solver          GAMG;		
        tolerance       1e-07;		// geringere Toleranzen koennen Konvergenz beguenstigen
        relTol          0.1;		
        smoother        GaussSeidel;
    }

    pFinal
    {
        $p;
        tolerance       1e-08;		
        relTol          0;		
    }

    "(U|k|epsilon|omega|R|nuTilda).*"
    {
        solver          smoothSolver;	
        smoother        GaussSeidel;
        tolerance       1e-08;		// geringere Toleranzen koennen Konvergenz beguenstigen
        relTol          0.1;		
    }
}


relaxationFactors			// Relaxationsfaktoren (stabilisieren den numerischen Loesungsprozess)
{
    fields
    {
        p           0.2;		// grober Richtwert: lam. 0.8; tur. 0.3
    }
    equations
    {
        U           0.6;		// grober Richtwert: lam. 0.9; tur. 0.7
        k           0.5;		// grober Richtwert: tur. 0.5
        epsilon     0.5;		// grober Richtwert: tur. 0.5
    //  omega       0.5;		// grober Richtwert: tur. 0.5, falls omega verwendet wird
    }
}


SIMPLE
{
    nNonOrthogonalCorrectors 0; 	// Fuer orthogonale Netze in BlockMesh
    consistent          yes;    	// Konsistenz des SIMPLE-Algorithmus sicherstellen
    momentumPredictor   yes;   		// Predict-Schritt fuer U
}



// ************************************************************************* //
